1XA
     RDKit          3D

 23 24  0  0  0  0  0  0  0  0999 V2000
   -9.3611   -6.4004    2.1406 C   0  0  0  0  0  0  0  0  0  0  0  0
   -8.1378   -6.8135    2.6721 C   0  0  0  0  0  0  0  0  0  0  0  0
   -7.1153   -7.2386    1.8262 C   0  0  0  0  0  0  0  0  0  0  0  0
   -7.3135   -7.2501    0.4468 C   0  0  0  0  0  0  0  0  0  0  0  0
   -8.5351   -6.8377   -0.0891 C   0  0  0  0  0  0  0  0  0  0  0  0
   -9.5699   -6.4132    0.7548 C   0  0  0  0  0  0  0  0  0  0  0  0
  -10.8330   -5.9777    0.1920 C   0  0  0  0  0  0  0  0  0  0  0  0
  -11.1192   -5.0099   -0.8101 C   0  0  0  0  0  0  0  0  0  0  0  0
  -10.1790   -4.1403   -1.5545 C   0  0  0  0  0  0  0  0  0  0  0  0
  -12.4338   -4.9287   -1.0511 N   0  0  0  0  0  0  0  0  0  0  0  0
  -13.0259   -5.8503   -0.2074 O   0  0  0  0  0  0  0  0  0  0  0  0
  -12.0719   -6.4799    0.5301 C   0  0  0  0  0  0  0  0  0  0  0  0
  -12.4921   -7.4281    1.3859 N   0  0  0  0  0  0  0  0  0  0  0  0
  -10.1395   -6.0627    2.8208 H   0  0  0  0  0  0  0  0  0  0  0  0
   -7.9823   -6.8007    3.7471 H   0  0  0  0  0  0  0  0  0  0  0  0
   -6.1644   -7.5593    2.2413 H   0  0  0  0  0  0  0  0  0  0  0  0
   -6.5167   -7.5810   -0.2130 H   0  0  0  0  0  0  0  0  0  0  0  0
   -8.6676   -6.8607   -1.1683 H   0  0  0  0  0  0  0  0  0  0  0  0
   -9.3860   -3.7699   -0.8971 H   0  0  0  0  0  0  0  0  0  0  0  0
   -9.7162   -4.6965   -2.3757 H   0  0  0  0  0  0  0  0  0  0  0  0
  -10.6902   -3.2699   -1.9791 H   0  0  0  0  0  0  0  0  0  0  0  0
  -13.4773   -7.4818    1.6276 H   0  0  0  0  0  0  0  0  0  0  0  0
  -11.8721   -7.7790    2.1100 H   0  0  0  0  0  0  0  0  0  0  0  0
  1  6  2  0
  1  2  1  0
  2  3  2  0
  3  4  1  0
  4  5  2  0
  5  6  1  0
  6  7  1  0
  7  8  1  0
  7 12  2  0
  8  9  1  0
  8 10  2  0
 10 11  1  0
 11 12  1  0
 12 13  1  0
  1 14  1  0
  2 15  1  0
  3 16  1  0
  4 17  1  0
  5 18  1  0
  9 19  1  0
  9 20  1  0
  9 21  1  0
 13 22  1  0
 13 23  1  0
M  END
