lig_f0.pdb
     RDKit          3D

 73 77  0  0  1  0  0  0  0  0999 V2000
    6.7280    1.0010   -7.7080 N   0  0  0  0  0  0  0  0  0  0  0  0
    7.4270   -0.3760   -9.6320 C   0  0  0  0  0  0  0  0  0  0  0  0
    5.7760   -1.6860  -10.6780 O   0  0  0  0  0  0  0  0  0  0  0  0
    1.0660   -1.9030  -17.0260 F   0  0  0  0  0  0  0  0  0  0  0  0
    1.3120   -0.6620  -16.5920 C   0  0  1  0  0  0  0  0  0  0  0  0
    2.5780   -0.3130  -16.8270 F   0  0  0  0  0  0  0  0  0  0  0  0
    0.5600    0.2430  -17.1930 F   0  0  0  0  0  0  0  0  0  0  0  0
    0.9340   -0.6360  -15.0720 C   0  0  1  0  0  0  0  0  0  0  0  0
    1.6590   -1.6640  -14.2230 C   0  0  0  0  0  0  0  0  0  0  0  0
    0.8800   -2.4460  -13.3670 C   0  0  0  0  0  0  0  0  0  0  0  0
    1.4630   -3.3710  -12.5140 C   0  0  0  0  0  0  0  0  0  0  0  0
    2.8220   -3.5600  -12.4990 C   0  0  0  0  0  0  0  0  0  0  0  0
    3.6050   -2.7770  -13.3390 C   0  0  0  0  0  0  0  0  0  0  0  0
    3.0400   -1.8430  -14.1690 C   0  0  0  0  0  0  0  0  0  0  0  0
    1.1150    0.7980  -14.5620 C   0  0  0  0  0  0  0  0  0  0  0  0
    0.6000    0.9280  -13.1300 C   0  0  0  0  0  0  0  0  0  0  0  0
   -0.5670    0.8130  -12.9920 O   0  0  0  0  0  0  0  0  0  0  0  0
    1.3640    1.1680  -12.0330 N   0  0  0  0  0  0  0  0  0  0  0  0
    0.8010    1.1730  -10.6820 C   0  0  0  0  0  0  0  0  0  0  0  0
    1.5240    0.0910   -9.8860 C   0  0  0  0  0  0  0  0  0  0  0  0
    2.8120    1.4500  -12.0320 C   0  0  0  0  0  0  0  0  0  0  0  0
    3.5890    0.4350  -11.2310 C   0  0  0  0  0  0  0  0  0  0  0  0
    3.0340    0.3460   -9.7620 C   0  0  1  0  0  0  0  0  0  0  0  0
    3.1620    1.6510   -9.1730 O   0  0  0  0  0  0  0  0  0  0  0  0
    3.7450   -0.7670   -8.9470 C   0  0  0  0  0  0  0  0  0  0  0  0
    5.1530   -0.4020   -8.8550 N   0  0  0  0  0  0  0  0  0  0  0  0
    5.5220    0.5300   -7.8720 C   0  0  0  0  0  0  0  0  0  0  0  0
    6.0780   -0.8890   -9.7980 C   0  0  0  0  0  0  0  0  0  0  0  0
    8.5370   -0.6080  -10.3380 N   0  0  0  0  0  0  0  0  0  0  0  0
    9.4630    0.0870   -9.8070 N   0  0  0  0  0  0  0  0  0  0  0  0
   10.8400    0.0850  -10.3420 C   0  0  0  0  0  0  0  0  0  0  0  0
    9.0400    0.8310   -8.7540 C   0  0  0  0  0  0  0  0  0  0  0  0
    7.7120    0.5350   -8.6610 C   0  0  0  0  0  0  0  0  0  0  0  0
    9.8070    1.7890   -7.8820 C   0  0  0  0  0  0  0  0  0  0  0  0
    9.2940    3.0620   -7.6440 C   0  0  0  0  0  0  0  0  0  0  0  0
    9.9770    3.9870   -6.8570 C   0  0  0  0  0  0  0  0  0  0  0  0
   11.2050    3.6320   -6.2970 C   0  0  0  0  0  0  0  0  0  0  0  0
   11.9740    4.5640   -5.3990 C   0  0  0  0  0  0  0  0  0  0  0  0
   11.4590    4.2980   -4.0340 N   0  0  0  0  0  4  0  0  0  0  0  0
   11.7400    2.3680   -6.5280 C   0  0  0  0  0  0  0  0  0  0  0  0
   11.0530    1.4690   -7.3140 C   0  0  0  0  0  0  0  0  0  0  0  0
   -0.0900   -0.9320  -14.9770 H   0  0  0  0  0  0  0  0  0  0  0  0
   -0.1470   -2.3340  -13.3700 H   0  0  0  0  0  0  0  0  0  0  0  0
    0.8660   -3.9260  -11.8810 H   0  0  0  0  0  0  0  0  0  0  0  0
    3.2520   -4.2650  -11.8790 H   0  0  0  0  0  0  0  0  0  0  0  0
    4.6300   -2.9010  -13.3380 H   0  0  0  0  0  0  0  0  0  0  0  0
    3.6490   -1.2620  -14.7660 H   0  0  0  0  0  0  0  0  0  0  0  0
    0.5700    1.4680  -15.1940 H   0  0  0  0  0  0  0  0  0  0  0  0
    2.1570    1.0400  -14.5770 H   0  0  0  0  0  0  0  0  0  0  0  0
   -0.2470    0.9600  -10.7200 H   0  0  0  0  0  0  0  0  0  0  0  0
    0.9270    2.1310  -10.2210 H   0  0  0  0  0  0  0  0  0  0  0  0
    1.3760   -0.8490  -10.3750 H   0  0  0  0  0  0  0  0  0  0  0  0
    1.1160    0.0950   -8.8970 H   0  0  0  0  0  0  0  0  0  0  0  0
    2.9740    2.4200  -11.6100 H   0  0  0  0  0  0  0  0  0  0  0  0
    3.1560    1.4050  -13.0440 H   0  0  0  0  0  0  0  0  0  0  0  0
    4.6190    0.7240  -11.2000 H   0  0  0  0  0  0  0  0  0  0  0  0
    3.4880   -0.5230  -11.6960 H   0  0  0  0  0  0  0  0  0  0  0  0
    2.7000    2.3020   -9.7240 H   0  0  0  0  0  0  0  0  0  0  0  0
    3.6420   -1.7080   -9.4450 H   0  0  0  0  0  0  0  0  0  0  0  0
    3.3120   -0.8600   -7.9720 H   0  0  0  0  0  0  0  0  0  0  0  0
    4.7860    0.8690   -7.2330 H   0  0  0  0  0  0  0  0  0  0  0  0
   10.8990   -0.5890  -11.1710 H   0  0  0  0  0  0  0  0  0  0  0  0
   11.5190   -0.2300   -9.5770 H   0  0  0  0  0  0  0  0  0  0  0  0
   11.0980    1.0720  -10.6650 H   0  0  0  0  0  0  0  0  0  0  0  0
    8.3870    3.3260   -8.0600 H   0  0  0  0  0  0  0  0  0  0  0  0
    9.5790    4.9240   -6.6890 H   0  0  0  0  0  0  0  0  0  0  0  0
   11.7970    5.5830   -5.6740 H   0  0  0  0  0  0  0  0  0  0  0  0
   13.0300    4.4060   -5.4660 H   0  0  0  0  0  0  0  0  0  0  0  0
   10.4520    4.4600   -4.0130 H   0  0  0  0  0  0  0  0  0  0  0  0
   11.9170    4.9220   -3.3700 H   0  0  0  0  0  0  0  0  0  0  0  0
   12.6470    2.1050   -6.1120 H   0  0  0  0  0  0  0  0  0  0  0  0
   11.4620    0.5380   -7.4890 H   0  0  0  0  0  0  0  0  0  0  0  0
   11.6554    3.3199   -3.7779 H   0  0  0  0  0  0  0  0  0  0  0  0
  1 27  2  0
  1 33  1  0
  2 28  1  0
  2 29  2  0
  2 33  1  0
  3 28  2  0
  5  4  1  6
  5  6  1  0
  5  7  1  0
  5  8  1  0
  8  9  1  0
  8 15  1  0
  8 42  1  6
  9 10  2  0
  9 14  1  0
 10 11  1  0
 10 43  1  0
 11 12  2  0
 11 44  1  0
 12 13  1  0
 12 45  1  0
 13 14  2  0
 13 46  1  0
 14 47  1  0
 15 16  1  0
 15 48  1  0
 15 49  1  0
 16 17  2  0
 16 18  1  0
 18 19  1  0
 18 21  1  0
 19 20  1  0
 19 50  1  0
 19 51  1  0
 20 23  1  0
 20 52  1  0
 20 53  1  0
 21 22  1  0
 21 54  1  0
 21 55  1  0
 22 23  1  0
 22 56  1  0
 22 57  1  0
 23 24  1  1
 23 25  1  0
 24 58  1  0
 25 26  1  0
 25 59  1  0
 25 60  1  0
 26 27  1  0
 26 28  1  0
 27 61  1  0
 29 30  1  0
 30 31  1  0
 30 32  1  0
 31 62  1  0
 31 63  1  0
 31 64  1  0
 32 33  2  0
 32 34  1  0
 34 35  2  0
 34 41  1  0
 35 36  1  0
 35 65  1  0
 36 37  2  0
 36 66  1  0
 37 38  1  0
 37 40  1  0
 38 39  1  0
 38 67  1  0
 38 68  1  0
 39 69  1  0
 39 70  1  0
 40 41  2  0
 40 71  1  0
 41 72  1  0
 39 73  1  0
M  CHG  1  39   1
M  END
