@<TRIPOS>MOLECULE
lig_f0.pdb
72 76 1 0 0
SMALL
NO_CHARGES


@<TRIPOS>ATOM
      1 N           6.7280    1.0010   -7.7080 N.2       1 8QQ    0.0000
      2 C           7.4270   -0.3760   -9.6320 C.ar      1 8QQ    0.0000
      3 O           5.7760   -1.6860  -10.6780 O.2       1 8QQ    0.0000
      4 F2          1.0660   -1.9030  -17.0260 F         1 8QQ    0.0000
      5 C17         1.3120   -0.6620  -16.5920 C.3       1 8QQ    0.0000
      6 F           2.5780   -0.3130  -16.8270 F         1 8QQ    0.0000
      7 F1          0.5600    0.2430  -17.1930 F         1 8QQ    0.0000
      8 C15         0.9340   -0.6360  -15.0720 C.3       1 8QQ    0.0000
      9 C16         1.6590   -1.6640  -14.2230 C.ar      1 8QQ    0.0000
     10 C28         0.8800   -2.4460  -13.3670 C.ar      1 8QQ    0.0000
     11 C27         1.4630   -3.3710  -12.5140 C.ar      1 8QQ    0.0000
     12 C26         2.8220   -3.5600  -12.4990 C.ar      1 8QQ    0.0000
     13 C25         3.6050   -2.7770  -13.3390 C.ar      1 8QQ    0.0000
     14 C24         3.0400   -1.8430  -14.1690 C.ar      1 8QQ    0.0000
     15 C14         1.1150    0.7980  -14.5620 C.3       1 8QQ    0.0000
     16 C13         0.6000    0.9280  -13.1300 C.2       1 8QQ    0.0000
     17 O1         -0.5670    0.8130  -12.9920 O.2       1 8QQ    0.0000
     18 N4          1.3640    1.1680  -12.0330 N.am      1 8QQ    0.0000
     19 C10         0.8010    1.1730  -10.6820 C.3       1 8QQ    0.0000
     20 C9          1.5240    0.0910   -9.8860 C.3       1 8QQ    0.0000
     21 C11         2.8120    1.4500  -12.0320 C.3       1 8QQ    0.0000
     22 C12         3.5890    0.4350  -11.2310 C.3       1 8QQ    0.0000
     23 C8          3.0340    0.3460   -9.7620 C.3       1 8QQ    0.0000
     24 O2          3.1620    1.6510   -9.1730 O.3       1 8QQ    0.0000
     25 C7          3.7450   -0.7670   -8.9470 C.3       1 8QQ    0.0000
     26 N1          5.1530   -0.4020   -8.8550 N.am      1 8QQ    0.0000
     27 C2          5.5220    0.5300   -7.8720 C.2       1 8QQ    0.0000
     28 C3          6.0780   -0.8890   -9.7980 C.2       1 8QQ    0.0000
     29 N2          8.5370   -0.6080  -10.3380 N.ar      1 8QQ    0.0000
     30 N3          9.4630    0.0870   -9.8070 N.ar      1 8QQ    0.0000
     31 C5         10.8400    0.0850  -10.3420 C.3       1 8QQ    0.0000
     32 C4          9.0400    0.8310   -8.7540 C.ar      1 8QQ    0.0000
     33 C1          7.7120    0.5350   -8.6610 C.ar      1 8QQ    0.0000
     34 C6          9.8070    1.7890   -7.8820 C.ar      1 8QQ    0.0000
     35 C22         9.2940    3.0620   -7.6440 C.ar      1 8QQ    0.0000
     36 C21         9.9770    3.9870   -6.8570 C.ar      1 8QQ    0.0000
     37 C20        11.2050    3.6320   -6.2970 C.ar      1 8QQ    0.0000
     38 C23        11.9740    4.5640   -5.3990 C.3       1 8QQ    0.0000
     39 N5         11.4590    4.2980   -4.0340 N.4       1 8QQ    0.0000
     40 C19        11.7400    2.3680   -6.5280 C.ar      1 8QQ    0.0000
     41 C18        11.0530    1.4690   -7.3140 C.ar      1 8QQ    0.0000
     42 H          -0.0900   -0.9320  -14.9770 H         1 8QQ    0.0000
     43 H1         -0.1470   -2.3340  -13.3700 H         1 8QQ    0.0000
     44 H2          0.8660   -3.9260  -11.8810 H         1 8QQ    0.0000
     45 H3          3.2520   -4.2650  -11.8790 H         1 8QQ    0.0000
     46 H4          4.6300   -2.9010  -13.3380 H         1 8QQ    0.0000
     47 H5          3.6490   -1.2620  -14.7660 H         1 8QQ    0.0000
     48 H6          0.5700    1.4680  -15.1940 H         1 8QQ    0.0000
     49 H7          2.1570    1.0400  -14.5770 H         1 8QQ    0.0000
     50 H8         -0.2470    0.9600  -10.7200 H         1 8QQ    0.0000
     51 H9          0.9270    2.1310  -10.2210 H         1 8QQ    0.0000
     52 H10         1.3760   -0.8490  -10.3750 H         1 8QQ    0.0000
     53 H11         1.1160    0.0950   -8.8970 H         1 8QQ    0.0000
     54 H12         2.9740    2.4200  -11.6100 H         1 8QQ    0.0000
     55 H13         3.1560    1.4050  -13.0440 H         1 8QQ    0.0000
     56 H14         4.6190    0.7240  -11.2000 H         1 8QQ    0.0000
     57 H15         3.4880   -0.5230  -11.6960 H         1 8QQ    0.0000
     58 H16         2.7000    2.3020   -9.7240 H         1 8QQ    0.0000
     59 H17         3.6420   -1.7080   -9.4450 H         1 8QQ    0.0000
     60 H18         3.3120   -0.8600   -7.9720 H         1 8QQ    0.0000
     61 H19         4.7860    0.8690   -7.2330 H         1 8QQ    0.0000
     62 H20        10.8990   -0.5890  -11.1710 H         1 8QQ    0.0000
     63 H21        11.5190   -0.2300   -9.5770 H         1 8QQ    0.0000
     64 H22        11.0980    1.0720  -10.6650 H         1 8QQ    0.0000
     65 H23         8.3870    3.3260   -8.0600 H         1 8QQ    0.0000
     66 H24         9.5790    4.9240   -6.6890 H         1 8QQ    0.0000
     67 H25        11.7970    5.5830   -5.6740 H         1 8QQ    0.0000
     68 H26        13.0300    4.4060   -5.4660 H         1 8QQ    0.0000
     69 H27        10.4520    4.4600   -4.0130 H         1 8QQ    0.0000
     70 H28        11.9170    4.9220   -3.3700 H         1 8QQ    0.0000
     71 H29        12.6470    2.1050   -6.1120 H         1 8QQ    0.0000
     72 H30        11.4620    0.5380   -7.4890 H         1 8QQ    0.0000
@<TRIPOS>BOND
     1    1   27 2
     2    1   33 1
     3    2   28 1
     4    2   29 ar
     5    2   33 ar
     6    3   28 2
     7    4    5 1
     8    5    6 1
     9    5    7 1
    10    5    8 1
    11    8    9 1
    12    8   15 1
    13    8   42 1
    14    9   10 ar
    15    9   14 ar
    16   10   11 ar
    17   10   43 1
    18   11   12 ar
    19   11   44 1
    20   12   13 ar
    21   12   45 1
    22   13   14 ar
    23   13   46 1
    24   14   47 1
    25   15   16 1
    26   15   48 1
    27   15   49 1
    28   16   17 2
    29   16   18 am
    30   18   19 1
    31   18   21 1
    32   19   20 1
    33   19   50 1
    34   19   51 1
    35   20   23 1
    36   20   52 1
    37   20   53 1
    38   21   22 1
    39   21   54 1
    40   21   55 1
    41   22   23 1
    42   22   56 1
    43   22   57 1
    44   23   24 1
    45   23   25 1
    46   24   58 1
    47   25   26 1
    48   25   59 1
    49   25   60 1
    50   26   27 1
    51   26   28 am
    52   27   61 1
    53   29   30 ar
    54   30   31 1
    55   30   32 ar
    56   31   62 1
    57   31   63 1
    58   31   64 1
    59   32   33 ar
    60   32   34 1
    61   34   35 ar
    62   34   41 ar
    63   35   36 ar
    64   35   65 1
    65   36   37 ar
    66   36   66 1
    67   37   38 1
    68   37   40 ar
    69   38   39 1
    70   38   67 1
    71   38   68 1
    72   39   69 1
    73   39   70 1
    74   40   41 ar
    75   40   71 1
    76   41   72 1
@<TRIPOS>SUBSTRUCTURE
     1 8QQ     1 RESIDUE           4 Z     8QQ     0 ROOT
