@<TRIPOS>MOLECULE
lig_f146.pdb
72 76 1 0 0
SMALL
NO_CHARGES


@<TRIPOS>ATOM
      1 N           7.4620    1.3820   -8.3300 N.2       1 8QQ    0.0000
      2 C           8.0070   -0.1240  -10.2320 C.ar      1 8QQ    0.0000
      3 O           6.2100   -1.4950  -11.0630 O.2       1 8QQ    0.0000
      4 F2         -0.3330    0.5430  -17.7700 F         1 8QQ    0.0000
      5 C17         0.7520   -0.0890  -17.2150 C.3       1 8QQ    0.0000
      6 F           0.6970   -1.2780  -17.8710 F         1 8QQ    0.0000
      7 F1          1.9210    0.5340  -17.5560 F         1 8QQ    0.0000
      8 C15         0.4970   -0.4200  -15.7070 C.3       1 8QQ    0.0000
      9 C16         1.3630   -1.5120  -15.0590 C.ar      1 8QQ    0.0000
     10 C28         0.7290   -2.3450  -14.1620 C.ar      1 8QQ    0.0000
     11 C27         1.5410   -3.3230  -13.6070 C.ar      1 8QQ    0.0000
     12 C26         2.8700   -3.4190  -13.7650 C.ar      1 8QQ    0.0000
     13 C25         3.4960   -2.5790  -14.7450 C.ar      1 8QQ    0.0000
     14 C24         2.7660   -1.6350  -15.4170 C.ar      1 8QQ    0.0000
     15 C14         0.6420    0.8250  -14.8320 C.3       1 8QQ    0.0000
     16 C13         0.3280    0.6760  -13.3710 C.2       1 8QQ    0.0000
     17 O1         -0.8750    0.5430  -13.0670 O.2       1 8QQ    0.0000
     18 N4          1.3230    0.6570  -12.3500 N.am      1 8QQ    0.0000
     19 C10         0.8220    0.5700  -10.9440 C.3       1 8QQ    0.0000
     20 C9          1.8360   -0.0530   -9.9860 C.3       1 8QQ    0.0000
     21 C11         2.6420    1.1530  -12.5890 C.3       1 8QQ    0.0000
     22 C12         3.6700    0.3830  -11.7560 C.3       1 8QQ    0.0000
     23 C8          3.3430    0.3820  -10.2150 C.3       1 8QQ    0.0000
     24 O2          3.3620    1.6770   -9.7530 O.3       1 8QQ    0.0000
     25 C7          4.3270   -0.4270   -9.3810 C.3       1 8QQ    0.0000
     26 N1          5.7630   -0.0260   -9.3830 N.am      1 8QQ    0.0000
     27 C2          6.2530    0.8460   -8.4140 C.2       1 8QQ    0.0000
     28 C3          6.5930   -0.6220  -10.2990 C.2       1 8QQ    0.0000
     29 N2          9.0710   -0.4440  -10.9610 N.ar      1 8QQ    0.0000
     30 N3         10.0070    0.3560  -10.3970 N.ar      1 8QQ    0.0000
     31 C5         11.3690    0.4020  -10.9790 C.3       1 8QQ    0.0000
     32 C4          9.5770    1.1540   -9.3730 C.ar      1 8QQ    0.0000
     33 C1          8.3030    0.8580   -9.3020 C.ar      1 8QQ    0.0000
     34 C6         10.1480    2.1870   -8.5270 C.ar      1 8QQ    0.0000
     35 C22         9.5700    3.4720   -8.3270 C.ar      1 8QQ    0.0000
     36 C21        10.1210    4.3290   -7.3920 C.ar      1 8QQ    0.0000
     37 C20        11.2700    4.1310   -6.6480 C.ar      1 8QQ    0.0000
     38 C23        11.8190    5.1750   -5.6850 C.3       1 8QQ    0.0000
     39 N5         10.8290    5.5090   -4.6010 N.4       1 8QQ    0.0000
     40 C19        11.8690    2.8910   -6.9050 C.ar      1 8QQ    0.0000
     41 C18        11.3730    1.9350   -7.8560 C.ar      1 8QQ    0.0000
     42 H          -0.5450   -0.7600  -15.6540 H         1 8QQ    0.0000
     43 H1         -0.3240   -2.2380  -13.9160 H         1 8QQ    0.0000
     44 H2          1.0880   -4.0610  -12.9520 H         1 8QQ    0.0000
     45 H3          3.4330   -4.2260  -13.3060 H         1 8QQ    0.0000
     46 H4          4.5590   -2.7480  -14.8890 H         1 8QQ    0.0000
     47 H5          3.2090   -0.9570  -16.1410 H         1 8QQ    0.0000
     48 H6         -0.1500    1.5320  -15.1110 H         1 8QQ    0.0000
     49 H7          1.5840    1.3620  -14.9970 H         1 8QQ    0.0000
     50 H8         -0.1050    0.0060  -10.7810 H         1 8QQ    0.0000
     51 H9          0.5850    1.6020  -10.6570 H         1 8QQ    0.0000
     52 H10         1.7370   -1.1350  -10.1420 H         1 8QQ    0.0000
     53 H11         1.5920    0.2360   -8.9560 H         1 8QQ    0.0000
     54 H12         2.7630    2.1960  -12.2720 H         1 8QQ    0.0000
     55 H13         2.9060    1.1150  -13.6530 H         1 8QQ    0.0000
     56 H14         4.6600    0.8050  -11.9690 H         1 8QQ    0.0000
     57 H15         3.7260   -0.6810  -12.0180 H         1 8QQ    0.0000
     58 H16         4.1500    2.1070  -10.1290 H         1 8QQ    0.0000
     59 H17         4.2640   -1.4820   -9.6750 H         1 8QQ    0.0000
     60 H18         4.0100   -0.4910   -8.3320 H         1 8QQ    0.0000
     61 H19         5.4790    1.1530   -7.7230 H         1 8QQ    0.0000
     62 H20        12.1940    0.2250  -10.2790 H         1 8QQ    0.0000
     63 H21        11.5960    1.3070  -11.5560 H         1 8QQ    0.0000
     64 H22        11.5120   -0.3490  -11.7660 H         1 8QQ    0.0000
     65 H23         8.6310    3.7600   -8.7910 H         1 8QQ    0.0000
     66 H24         9.5080    5.1950   -7.1620 H         1 8QQ    0.0000
     67 H25        11.9890    6.1260   -6.2040 H         1 8QQ    0.0000
     68 H26        12.7590    4.7610   -5.3000 H         1 8QQ    0.0000
     69 H27        10.6240    4.5900   -4.2110 H         1 8QQ    0.0000
     70 H28         9.9610    5.7220   -5.0910 H         1 8QQ    0.0000
     71 H29        12.7960    2.7030   -6.3720 H         1 8QQ    0.0000
     72 H30        11.8910    0.9860   -7.9590 H         1 8QQ    0.0000
@<TRIPOS>BOND
     1    1   27 2
     2    1   33 1
     3    2   28 1
     4    2   29 ar
     5    2   33 ar
     6    3   28 2
     7    4    5 1
     8    5    6 1
     9    5    7 1
    10    5    8 1
    11    8    9 1
    12    8   15 1
    13    8   42 1
    14    9   10 ar
    15    9   14 ar
    16   10   11 ar
    17   10   43 1
    18   11   12 ar
    19   11   44 1
    20   12   13 ar
    21   12   45 1
    22   13   14 ar
    23   13   46 1
    24   14   47 1
    25   15   16 1
    26   15   48 1
    27   15   49 1
    28   16   17 2
    29   16   18 am
    30   18   19 1
    31   18   21 1
    32   19   20 1
    33   19   50 1
    34   19   51 1
    35   20   23 1
    36   20   52 1
    37   20   53 1
    38   21   22 1
    39   21   54 1
    40   21   55 1
    41   22   23 1
    42   22   56 1
    43   22   57 1
    44   23   24 1
    45   23   25 1
    46   24   58 1
    47   25   26 1
    48   25   59 1
    49   25   60 1
    50   26   27 1
    51   26   28 am
    52   27   61 1
    53   29   30 ar
    54   30   31 1
    55   30   32 ar
    56   31   62 1
    57   31   63 1
    58   31   64 1
    59   32   33 ar
    60   32   34 1
    61   34   35 ar
    62   34   41 ar
    63   35   36 ar
    64   35   65 1
    65   36   37 ar
    66   36   66 1
    67   37   38 1
    68   37   40 ar
    69   38   39 1
    70   38   67 1
    71   38   68 1
    72   39   69 1
    73   39   70 1
    74   40   41 ar
    75   40   71 1
    76   41   72 1
@<TRIPOS>SUBSTRUCTURE
     1 8QQ     1 RESIDUE           4 Z     8QQ     0 ROOT
