lig_f146.pdb
 OpenBabel07102012393D

 72 76  0  0  1  0  0  0  0  0999 V2000
    7.4620    1.3820   -8.3300 N   0  0  0  0  0  0  0  0  0  0  0  0
    8.0070   -0.1240  -10.2320 C   0  0  0  0  0  0  0  0  0  0  0  0
    6.2100   -1.4950  -11.0630 O   0  0  0  0  0  0  0  0  0  0  0  0
   -0.3330    0.5430  -17.7700 F   0  0  0  0  0  0  0  0  0  0  0  0
    0.7520   -0.0890  -17.2150 C   0  0  0  0  0  0  0  0  0  0  0  0
    0.6970   -1.2780  -17.8710 F   0  0  0  0  0  0  0  0  0  0  0  0
    1.9210    0.5340  -17.5560 F   0  0  0  0  0  0  0  0  0  0  0  0
    0.4970   -0.4200  -15.7070 C   0  0  1  0  0  0  0  0  0  0  0  0
    1.3630   -1.5120  -15.0590 C   0  0  0  0  0  0  0  0  0  0  0  0
    0.7290   -2.3450  -14.1620 C   0  0  0  0  0  0  0  0  0  0  0  0
    1.5410   -3.3230  -13.6070 C   0  0  0  0  0  0  0  0  0  0  0  0
    2.8700   -3.4190  -13.7650 C   0  0  0  0  0  0  0  0  0  0  0  0
    3.4960   -2.5790  -14.7450 C   0  0  0  0  0  0  0  0  0  0  0  0
    2.7660   -1.6350  -15.4170 C   0  0  0  0  0  0  0  0  0  0  0  0
    0.6420    0.8250  -14.8320 C   0  0  0  0  0  0  0  0  0  0  0  0
    0.3280    0.6760  -13.3710 C   0  0  0  0  0  0  0  0  0  0  0  0
   -0.8750    0.5430  -13.0670 O   0  0  0  0  0  0  0  0  0  0  0  0
    1.3230    0.6570  -12.3500 N   0  0  0  0  0  0  0  0  0  0  0  0
    0.8220    0.5700  -10.9440 C   0  0  0  0  0  0  0  0  0  0  0  0
    1.8360   -0.0530   -9.9860 C   0  0  0  0  0  0  0  0  0  0  0  0
    2.6420    1.1530  -12.5890 C   0  0  0  0  0  0  0  0  0  0  0  0
    3.6700    0.3830  -11.7560 C   0  0  0  0  0  0  0  0  0  0  0  0
    3.3430    0.3820  -10.2150 C   0  0  1  0  0  0  0  0  0  0  0  0
    3.3620    1.6770   -9.7530 O   0  0  0  0  0  0  0  0  0  0  0  0
    4.3270   -0.4270   -9.3810 C   0  0  0  0  0  0  0  0  0  0  0  0
    5.7630   -0.0260   -9.3830 N   0  0  0  0  0  0  0  0  0  0  0  0
    6.2530    0.8460   -8.4140 C   0  0  0  0  0  0  0  0  0  0  0  0
    6.5930   -0.6220  -10.2990 C   0  0  0  0  0  0  0  0  0  0  0  0
    9.0710   -0.4440  -10.9610 N   0  0  0  0  0  0  0  0  0  0  0  0
   10.0070    0.3560  -10.3970 N   0  0  0  0  0  0  0  0  0  0  0  0
   11.3690    0.4020  -10.9790 C   0  0  0  0  0  0  0  0  0  0  0  0
    9.5770    1.1540   -9.3730 C   0  0  0  0  0  0  0  0  0  0  0  0
    8.3030    0.8580   -9.3020 C   0  0  0  0  0  0  0  0  0  0  0  0
   10.1480    2.1870   -8.5270 C   0  0  0  0  0  0  0  0  0  0  0  0
    9.5700    3.4720   -8.3270 C   0  0  0  0  0  0  0  0  0  0  0  0
   10.1210    4.3290   -7.3920 C   0  0  0  0  0  0  0  0  0  0  0  0
   11.2700    4.1310   -6.6480 C   0  0  0  0  0  0  0  0  0  0  0  0
   11.8190    5.1750   -5.6850 C   0  0  0  0  0  0  0  0  0  0  0  0
   10.8290    5.5090   -4.6010 N   0  3  0  0  0  0  0  0  0  0  0  0
   11.8690    2.8910   -6.9050 C   0  0  0  0  0  0  0  0  0  0  0  0
   11.3730    1.9350   -7.8560 C   0  0  0  0  0  0  0  0  0  0  0  0
   -0.5450   -0.7600  -15.6540 H   0  0  0  0  0  0  0  0  0  0  0  0
   -0.3240   -2.2380  -13.9160 H   0  0  0  0  0  0  0  0  0  0  0  0
    1.0880   -4.0610  -12.9520 H   0  0  0  0  0  0  0  0  0  0  0  0
    3.4330   -4.2260  -13.3060 H   0  0  0  0  0  0  0  0  0  0  0  0
    4.5590   -2.7480  -14.8890 H   0  0  0  0  0  0  0  0  0  0  0  0
    3.2090   -0.9570  -16.1410 H   0  0  0  0  0  0  0  0  0  0  0  0
   -0.1500    1.5320  -15.1110 H   0  0  0  0  0  0  0  0  0  0  0  0
    1.5840    1.3620  -14.9970 H   0  0  0  0  0  0  0  0  0  0  0  0
   -0.1050    0.0060  -10.7810 H   0  0  0  0  0  0  0  0  0  0  0  0
    0.5850    1.6020  -10.6570 H   0  0  0  0  0  0  0  0  0  0  0  0
    1.7370   -1.1350  -10.1420 H   0  0  0  0  0  0  0  0  0  0  0  0
    1.5920    0.2360   -8.9560 H   0  0  0  0  0  0  0  0  0  0  0  0
    2.7630    2.1960  -12.2720 H   0  0  0  0  0  0  0  0  0  0  0  0
    2.9060    1.1150  -13.6530 H   0  0  0  0  0  0  0  0  0  0  0  0
    4.6600    0.8050  -11.9690 H   0  0  0  0  0  0  0  0  0  0  0  0
    3.7260   -0.6810  -12.0180 H   0  0  0  0  0  0  0  0  0  0  0  0
    4.1500    2.1070  -10.1290 H   0  0  0  0  0  0  0  0  0  0  0  0
    4.2640   -1.4820   -9.6750 H   0  0  0  0  0  0  0  0  0  0  0  0
    4.0100   -0.4910   -8.3320 H   0  0  0  0  0  0  0  0  0  0  0  0
    5.4790    1.1530   -7.7230 H   0  0  0  0  0  0  0  0  0  0  0  0
   12.1940    0.2250  -10.2790 H   0  0  0  0  0  0  0  0  0  0  0  0
   11.5960    1.3070  -11.5560 H   0  0  0  0  0  0  0  0  0  0  0  0
   11.5120   -0.3490  -11.7660 H   0  0  0  0  0  0  0  0  0  0  0  0
    8.6310    3.7600   -8.7910 H   0  0  0  0  0  0  0  0  0  0  0  0
    9.5080    5.1950   -7.1620 H   0  0  0  0  0  0  0  0  0  0  0  0
   11.9890    6.1260   -6.2040 H   0  0  0  0  0  0  0  0  0  0  0  0
   12.7590    4.7610   -5.3000 H   0  0  0  0  0  0  0  0  0  0  0  0
   10.6240    4.5900   -4.2110 H   0  0  0  0  0  0  0  0  0  0  0  0
    9.9610    5.7220   -5.0910 H   0  0  0  0  0  0  0  0  0  0  0  0
   12.7960    2.7030   -6.3720 H   0  0  0  0  0  0  0  0  0  0  0  0
   11.8910    0.9860   -7.9590 H   0  0  0  0  0  0  0  0  0  0  0  0
  1 27  2  0  0  0  0
  1 33  1  0  0  0  0
  2 28  1  0  0  0  0
  2 29  2  0  0  0  0
  2 33  1  0  0  0  0
  3 28  2  0  0  0  0
  4  5  1  0  0  0  0
  5  6  1  0  0  0  0
  5  7  1  0  0  0  0
  5  8  1  0  0  0  0
  8  9  1  0  0  0  0
  8 15  1  0  0  0  0
  8 42  1  1  0  0  0
  9 10  2  0  0  0  0
  9 14  1  0  0  0  0
 10 11  1  0  0  0  0
 10 43  1  0  0  0  0
 11 12  2  0  0  0  0
 11 44  1  0  0  0  0
 12 13  1  0  0  0  0
 12 45  1  0  0  0  0
 13 14  2  0  0  0  0
 13 46  1  0  0  0  0
 14 47  1  0  0  0  0
 15 16  1  0  0  0  0
 15 48  1  0  0  0  0
 15 49  1  0  0  0  0
 16 17  2  0  0  0  0
 16 18  1  0  0  0  0
 18 19  1  0  0  0  0
 18 21  1  0  0  0  0
 19 20  1  0  0  0  0
 19 50  1  0  0  0  0
 19 51  1  0  0  0  0
 20 23  1  0  0  0  0
 20 52  1  0  0  0  0
 20 53  1  0  0  0  0
 21 22  1  0  0  0  0
 21 54  1  0  0  0  0
 21 55  1  0  0  0  0
 22 23  1  0  0  0  0
 22 56  1  0  0  0  0
 22 57  1  0  0  0  0
 23 24  1  1  0  0  0
 23 25  1  0  0  0  0
 24 58  1  0  0  0  0
 25 26  1  0  0  0  0
 25 59  1  0  0  0  0
 25 60  1  0  0  0  0
 26 27  1  0  0  0  0
 26 28  1  0  0  0  0
 27 61  1  0  0  0  0
 29 30  1  0  0  0  0
 30 31  1  0  0  0  0
 30 32  1  0  0  0  0
 31 62  1  0  0  0  0
 31 63  1  0  0  0  0
 31 64  1  0  0  0  0
 32 33  2  0  0  0  0
 32 34  1  0  0  0  0
 34 35  2  0  0  0  0
 34 41  1  0  0  0  0
 35 36  1  0  0  0  0
 35 65  1  0  0  0  0
 36 37  2  0  0  0  0
 36 66  1  0  0  0  0
 37 38  1  0  0  0  0
 37 40  1  0  0  0  0
 38 39  1  0  0  0  0
 38 67  1  0  0  0  0
 38 68  1  0  0  0  0
 39 69  1  0  0  0  0
 39 70  1  0  0  0  0
 40 41  2  0  0  0  0
 40 71  1  0  0  0  0
 41 72  1  0  0  0  0
M  CHG  1  39   1
M  END
$$$$
