@<TRIPOS>MOLECULE
lig_f277.pdb
72 76 1 0 0
SMALL
NO_CHARGES


@<TRIPOS>ATOM
      1 N           7.3350    1.3310   -8.3700 N.2       1 8QQ    0.0000
      2 C           8.0050    0.0740  -10.3740 C.ar      1 8QQ    0.0000
      3 O           6.3440   -1.1480  -11.5180 O.2       1 8QQ    0.0000
      4 F2          0.0550    1.0270  -17.6110 F         1 8QQ    0.0000
      5 C17         0.8210    0.1520  -17.0260 C.3       1 8QQ    0.0000
      6 F           0.5490   -1.0040  -17.5760 F         1 8QQ    0.0000
      7 F1          2.1370    0.5080  -17.3830 F         1 8QQ    0.0000
      8 C15         0.6360    0.0940  -15.4980 C.3       1 8QQ    0.0000
      9 C16         1.6430   -0.9900  -14.8940 C.ar      1 8QQ    0.0000
     10 C28         1.0950   -1.8840  -13.9890 C.ar      1 8QQ    0.0000
     11 C27         1.9630   -2.8220  -13.3520 C.ar      1 8QQ    0.0000
     12 C26         3.2930   -2.9600  -13.8690 C.ar      1 8QQ    0.0000
     13 C25         3.8250   -1.9590  -14.6540 C.ar      1 8QQ    0.0000
     14 C24         3.0530   -1.0000  -15.2140 C.ar      1 8QQ    0.0000
     15 C14         0.7200    1.4830  -14.8690 C.3       1 8QQ    0.0000
     16 C13         0.3950    1.3640  -13.4090 C.2       1 8QQ    0.0000
     17 O1         -0.7410    1.0880  -13.0870 O.2       1 8QQ    0.0000
     18 N4          1.3620    1.4410  -12.4010 N.am      1 8QQ    0.0000
     19 C10         0.9720    1.1190  -11.0420 C.3       1 8QQ    0.0000
     20 C9          1.9420    0.1900  -10.3360 C.3       1 8QQ    0.0000
     21 C11         2.8410    1.7240  -12.6800 C.3       1 8QQ    0.0000
     22 C12         3.7850    0.7410  -11.9790 C.3       1 8QQ    0.0000
     23 C8          3.4440    0.5680  -10.4680 C.3       1 8QQ    0.0000
     24 O2          3.5520    1.8410   -9.8550 O.3       1 8QQ    0.0000
     25 C7          4.3570   -0.4690   -9.6930 C.3       1 8QQ    0.0000
     26 N1          5.7580   -0.0080   -9.6500 N.am      1 8QQ    0.0000
     27 C2          6.1350    0.9420   -8.6800 C.2       1 8QQ    0.0000
     28 C3          6.6930   -0.4260  -10.6070 C.2       1 8QQ    0.0000
     29 N2          9.0970   -0.2730  -10.9900 N.ar      1 8QQ    0.0000
     30 N3         10.0780    0.4080  -10.3760 N.ar      1 8QQ    0.0000
     31 C5         11.4160    0.7140  -10.9410 C.3       1 8QQ    0.0000
     32 C4          9.5830    1.1910   -9.3030 C.ar      1 8QQ    0.0000
     33 C1          8.2450    0.8840   -9.3060 C.ar      1 8QQ    0.0000
     34 C6         10.0860    2.2280   -8.4850 C.ar      1 8QQ    0.0000
     35 C22         9.4450    3.4690   -8.4200 C.ar      1 8QQ    0.0000
     36 C21         9.9810    4.4240   -7.5630 C.ar      1 8QQ    0.0000
     37 C20        11.2220    4.1620   -6.8980 C.ar      1 8QQ    0.0000
     38 C23        11.7900    5.3940   -6.1780 C.3       1 8QQ    0.0000
     39 N5         12.8170    6.0570   -6.9380 N.4       1 8QQ    0.0000
     40 C19        11.9160    2.9840   -7.0520 C.ar      1 8QQ    0.0000
     41 C18        11.3850    2.0140   -7.8950 C.ar      1 8QQ    0.0000
     42 H          -0.3770   -0.2670  -15.2800 H         1 8QQ    0.0000
     43 H1          0.0460   -1.8880  -13.7080 H         1 8QQ    0.0000
     44 H2          1.5360   -3.5440  -12.6630 H         1 8QQ    0.0000
     45 H3          3.9020   -3.8070  -13.5670 H         1 8QQ    0.0000
     46 H4          4.8990   -1.9580  -14.8140 H         1 8QQ    0.0000
     47 H5          3.5250   -0.1030  -15.6030 H         1 8QQ    0.0000
     48 H6         -0.0410    2.1500  -15.2920 H         1 8QQ    0.0000
     49 H7          1.6140    2.0860  -15.0720 H         1 8QQ    0.0000
     50 H8         -0.0220    0.6620  -10.9520 H         1 8QQ    0.0000
     51 H9          0.9310    2.0710  -10.4980 H         1 8QQ    0.0000
     52 H10         1.7180   -0.7670  -10.8230 H         1 8QQ    0.0000
     53 H11         1.7240   -0.0370   -9.2850 H         1 8QQ    0.0000
     54 H12         2.9720    2.7680  -12.3700 H         1 8QQ    0.0000
     55 H13         3.0430    1.6100  -13.7520 H         1 8QQ    0.0000
     56 H14         4.8190    0.9980  -12.2390 H         1 8QQ    0.0000
     57 H15         3.7910   -0.2380  -12.4720 H         1 8QQ    0.0000
     58 H16         4.1900    2.3630  -10.3720 H         1 8QQ    0.0000
     59 H17         4.3160   -1.4270  -10.2240 H         1 8QQ    0.0000
     60 H18         3.9180   -0.6460   -8.7030 H         1 8QQ    0.0000
     61 H19         5.2180    1.2120   -8.1730 H         1 8QQ    0.0000
     62 H20        11.8340   -0.1980  -11.3850 H         1 8QQ    0.0000
     63 H21        12.0830    1.1100  -10.1660 H         1 8QQ    0.0000
     64 H22        11.3440    1.4750  -11.7280 H         1 8QQ    0.0000
     65 H23         8.5480    3.6080   -9.0170 H         1 8QQ    0.0000
     66 H24         9.4080    5.3460   -7.5240 H         1 8QQ    0.0000
     67 H25        12.1270    4.9950   -5.2130 H         1 8QQ    0.0000
     68 H26        11.0360    6.1540   -5.9410 H         1 8QQ    0.0000
     69 H27        12.3990    6.0350   -7.8670 H         1 8QQ    0.0000
     70 H28        13.5500    5.3850   -7.1620 H         1 8QQ    0.0000
     71 H29        12.9000    2.7590   -6.6510 H         1 8QQ    0.0000
     72 H30        11.9360    1.1000   -8.0960 H         1 8QQ    0.0000
@<TRIPOS>BOND
     1    1   27 2
     2    1   33 1
     3    2   28 1
     4    2   29 ar
     5    2   33 ar
     6    3   28 2
     7    4    5 1
     8    5    6 1
     9    5    7 1
    10    5    8 1
    11    8    9 1
    12    8   15 1
    13    8   42 1
    14    9   10 ar
    15    9   14 ar
    16   10   11 ar
    17   10   43 1
    18   11   12 ar
    19   11   44 1
    20   12   13 ar
    21   12   45 1
    22   13   14 ar
    23   13   46 1
    24   14   47 1
    25   15   16 1
    26   15   48 1
    27   15   49 1
    28   16   17 2
    29   16   18 am
    30   18   19 1
    31   18   21 1
    32   19   20 1
    33   19   50 1
    34   19   51 1
    35   20   23 1
    36   20   52 1
    37   20   53 1
    38   21   22 1
    39   21   54 1
    40   21   55 1
    41   22   23 1
    42   22   56 1
    43   22   57 1
    44   23   24 1
    45   23   25 1
    46   24   58 1
    47   25   26 1
    48   25   59 1
    49   25   60 1
    50   26   27 1
    51   26   28 am
    52   27   61 1
    53   29   30 ar
    54   30   31 1
    55   30   32 ar
    56   31   62 1
    57   31   63 1
    58   31   64 1
    59   32   33 ar
    60   32   34 1
    61   34   35 ar
    62   34   41 ar
    63   35   36 ar
    64   35   65 1
    65   36   37 ar
    66   36   66 1
    67   37   38 1
    68   37   40 ar
    69   38   39 1
    70   38   67 1
    71   38   68 1
    72   39   69 1
    73   39   70 1
    74   40   41 ar
    75   40   71 1
    76   41   72 1
@<TRIPOS>SUBSTRUCTURE
     1 8QQ     1 RESIDUE           4 Z     8QQ     0 ROOT
