@<TRIPOS>MOLECULE
lig_f332.pdb
72 76 1 0 0
SMALL
NO_CHARGES


@<TRIPOS>ATOM
      1 N           8.1480    1.3000   -9.0440 N.2       1 8QQ    0.0000
      2 C           8.4420   -0.4950  -10.7680 C.ar      1 8QQ    0.0000
      3 O           6.4310   -1.5520  -11.4960 O.2       1 8QQ    0.0000
      4 F2          2.2750   -0.3270  -18.1640 F         1 8QQ    0.0000
      5 C17         1.4720    0.3520  -17.3340 C.3       1 8QQ    0.0000
      6 F           1.9530    1.5870  -17.2340 F         1 8QQ    0.0000
      7 F1          0.3030    0.3850  -18.0070 F         1 8QQ    0.0000
      8 C15         1.4290   -0.3580  -15.9290 C.3       1 8QQ    0.0000
      9 C16         2.8240   -0.9390  -15.5830 C.ar      1 8QQ    0.0000
     10 C28         2.8570   -2.2500  -15.1590 C.ar      1 8QQ    0.0000
     11 C27         4.0030   -2.7310  -14.5480 C.ar      1 8QQ    0.0000
     12 C26         5.2250   -2.0610  -14.5010 C.ar      1 8QQ    0.0000
     13 C25         5.2400   -0.8250  -15.1480 C.ar      1 8QQ    0.0000
     14 C24         4.0440   -0.2350  -15.6350 C.ar      1 8QQ    0.0000
     15 C14         0.8710    0.5370  -14.8320 C.3       1 8QQ    0.0000
     16 C13         0.9990   -0.0230  -13.4260 C.2       1 8QQ    0.0000
     17 O1          0.1820   -0.8500  -13.1190 O.2       1 8QQ    0.0000
     18 N4          1.6530    0.6860  -12.4850 N.am      1 8QQ    0.0000
     19 C10         1.2270    0.5340  -11.0950 C.3       1 8QQ    0.0000
     20 C9          2.3250   -0.1760  -10.2600 C.3       1 8QQ    0.0000
     21 C11         2.8810    1.6530  -12.6360 C.3       1 8QQ    0.0000
     22 C12         4.0250    0.9220  -11.9160 C.3       1 8QQ    0.0000
     23 C8          3.6790    0.5810  -10.4600 C.3       1 8QQ    0.0000
     24 O2          3.5150    1.8660   -9.7360 O.3       1 8QQ    0.0000
     25 C7          4.7530   -0.3580   -9.7200 C.3       1 8QQ    0.0000
     26 N1          6.2050    0.0330   -9.9340 N.am      1 8QQ    0.0000
     27 C2          6.8350    0.9410   -9.1000 C.2       1 8QQ    0.0000
     28 C3          6.9700   -0.7120  -10.8100 C.2       1 8QQ    0.0000
     29 N2          9.4470   -1.1150  -11.3800 N.ar      1 8QQ    0.0000
     30 N3         10.5180   -0.3720  -11.0010 N.ar      1 8QQ    0.0000
     31 C5         11.8090   -0.6150  -11.6090 C.3       1 8QQ    0.0000
     32 C4         10.2050    0.6210  -10.0980 C.ar      1 8QQ    0.0000
     33 C1          8.8780    0.5240   -9.9230 C.ar      1 8QQ    0.0000
     34 C6         11.0870    1.5450   -9.3300 C.ar      1 8QQ    0.0000
     35 C22        12.0190    2.3610  -10.0450 C.ar      1 8QQ    0.0000
     36 C21        12.9260    3.1210   -9.3750 C.ar      1 8QQ    0.0000
     37 C20        12.9550    3.1300   -7.9620 C.ar      1 8QQ    0.0000
     38 C23        13.9110    4.0430   -7.2770 C.3       1 8QQ    0.0000
     39 N5         15.2870    3.5800   -7.4660 N.4       1 8QQ    0.0000
     40 C19        12.0140    2.3800   -7.2680 C.ar      1 8QQ    0.0000
     41 C18        11.0490    1.5850   -7.9070 C.ar      1 8QQ    0.0000
     42 H           0.7790   -1.2180  -16.1330 H         1 8QQ    0.0000
     43 H1          1.9160   -2.7920  -15.1600 H         1 8QQ    0.0000
     44 H2          3.9870   -3.6980  -14.0540 H         1 8QQ    0.0000
     45 H3          6.1740   -2.4650  -14.1620 H         1 8QQ    0.0000
     46 H4          6.1470   -0.2290  -15.1900 H         1 8QQ    0.0000
     47 H5          4.0790    0.8150  -15.9120 H         1 8QQ    0.0000
     48 H6         -0.2130    0.7030  -14.8370 H         1 8QQ    0.0000
     49 H7          1.1640    1.5910  -14.7460 H         1 8QQ    0.0000
     50 H8          0.3560   -0.1320  -11.0440 H         1 8QQ    0.0000
     51 H9          1.0230    1.5110  -10.6410 H         1 8QQ    0.0000
     52 H10         2.4100   -1.1950  -10.6570 H         1 8QQ    0.0000
     53 H11         2.0160   -0.1780   -9.2070 H         1 8QQ    0.0000
     54 H12         2.6860    2.6360  -12.1910 H         1 8QQ    0.0000
     55 H13         3.2040    1.7540  -13.6800 H         1 8QQ    0.0000
     56 H14         4.9950    1.4320  -11.9730 H         1 8QQ    0.0000
     57 H15         4.2840   -0.0130  -12.4280 H         1 8QQ    0.0000
     58 H16         4.2270    2.4420  -10.0650 H         1 8QQ    0.0000
     59 H17         4.5950   -1.4070   -9.9960 H         1 8QQ    0.0000
     60 H18         4.5910   -0.2860   -8.6370 H         1 8QQ    0.0000
     61 H19         6.1250    1.4200   -8.4390 H         1 8QQ    0.0000
     62 H20        12.0870   -1.6490  -11.3710 H         1 8QQ    0.0000
     63 H21        12.4910    0.1470  -11.2120 H         1 8QQ    0.0000
     64 H22        11.9040   -0.4150  -12.6840 H         1 8QQ    0.0000
     65 H23        11.9790    2.2840  -11.1270 H         1 8QQ    0.0000
     66 H24        13.6830    3.6840   -9.9130 H         1 8QQ    0.0000
     67 H25        13.8310    4.1240   -6.1860 H         1 8QQ    0.0000
     68 H26        13.7560    5.0480   -7.6880 H         1 8QQ    0.0000
     69 H27        15.2860    2.6040   -7.1750 H         1 8QQ    0.0000
     70 H28        15.7840    4.0570   -6.7150 H         1 8QQ    0.0000
     71 H29        12.0520    2.3850   -6.1830 H         1 8QQ    0.0000
     72 H30        10.3470    0.9820   -7.3390 H         1 8QQ    0.0000
@<TRIPOS>BOND
     1    1   27 2
     2    1   33 1
     3    2   28 1
     4    2   29 ar
     5    2   33 ar
     6    3   28 2
     7    4    5 1
     8    5    6 1
     9    5    7 1
    10    5    8 1
    11    8    9 1
    12    8   15 1
    13    8   42 1
    14    9   10 ar
    15    9   14 ar
    16   10   11 ar
    17   10   43 1
    18   11   12 ar
    19   11   44 1
    20   12   13 ar
    21   12   45 1
    22   13   14 ar
    23   13   46 1
    24   14   47 1
    25   15   16 1
    26   15   48 1
    27   15   49 1
    28   16   17 2
    29   16   18 am
    30   18   19 1
    31   18   21 1
    32   19   20 1
    33   19   50 1
    34   19   51 1
    35   20   23 1
    36   20   52 1
    37   20   53 1
    38   21   22 1
    39   21   54 1
    40   21   55 1
    41   22   23 1
    42   22   56 1
    43   22   57 1
    44   23   24 1
    45   23   25 1
    46   24   58 1
    47   25   26 1
    48   25   59 1
    49   25   60 1
    50   26   27 1
    51   26   28 am
    52   27   61 1
    53   29   30 ar
    54   30   31 1
    55   30   32 ar
    56   31   62 1
    57   31   63 1
    58   31   64 1
    59   32   33 ar
    60   32   34 1
    61   34   35 ar
    62   34   41 ar
    63   35   36 ar
    64   35   65 1
    65   36   37 ar
    66   36   66 1
    67   37   38 1
    68   37   40 ar
    69   38   39 1
    70   38   67 1
    71   38   68 1
    72   39   69 1
    73   39   70 1
    74   40   41 ar
    75   40   71 1
    76   41   72 1
@<TRIPOS>SUBSTRUCTURE
     1 8QQ     1 RESIDUE           4 Z     8QQ     0 ROOT
