/Users/mjusot/work/data/galapagos/prep_complex_5uit/test_ligand_parametrized/test_md/selected_pdb_frames/lig_1.pdb
     RDKit          3D

 46 48  0  0  1  0  0  0  0  0999 V2000
   50.3600   59.0600   27.1600 N   0  0  0  0  0  0  0  0  0  0  0  0
   50.2400   58.9500   30.1300 C   0  0  0  0  0  0  0  0  0  0  0  0
   47.1900   58.3100   34.7900 N   0  0  0  0  0  0  0  0  0  0  0  0
   51.1500   61.2700   31.4700 C   0  0  0  0  0  0  0  0  0  0  0  0
   50.5100   60.2500   32.1900 C   0  0  0  0  0  0  0  0  0  0  0  0
   51.4400   62.4400   33.5700 C   0  0  0  0  0  0  0  0  0  0  0  0
   48.8800   57.1000   35.9400 C   0  0  0  0  0  0  0  0  0  0  0  0
   51.6100   62.3900   32.1800 C   0  0  0  0  0  0  0  0  0  0  0  0
   51.1200   59.9000   27.9000 C   0  0  0  0  0  0  0  0  0  0  0  0
   51.3000   61.1500   30.0700 C   0  0  0  0  0  0  0  0  0  0  0  0
   51.9400   60.5900   27.3300 O   0  0  0  0  0  0  0  0  0  0  0  0
   50.8800   59.9800   29.3900 C   0  0  0  0  0  0  0  0  0  0  0  0
   49.8300   57.8000   29.4900 O   0  0  0  0  0  0  0  0  0  0  0  0
   49.2100   56.6600   30.1200 C   0  0  0  0  0  0  0  0  0  0  0  0
   48.5900   55.8200   28.9900 C   0  0  0  0  0  0  0  0  0  0  0  0
   50.2900   55.8500   30.8600 C   0  0  0  0  0  0  0  0  0  0  0  0
   50.8400   61.4600   34.2700 N   0  0  0  0  0  0  0  0  0  0  0  0
   50.3600   60.4000   33.5900 C   0  0  0  0  0  0  0  0  0  0  0  0
   50.0400   59.1100   31.5200 C   0  0  0  0  0  0  0  0  0  0  0  0
   49.7200   59.4000   34.2800 O   0  0  0  0  0  0  0  0  0  0  0  0
   49.1300   59.6500   35.5800 C   0  0  0  0  0  0  0  0  0  0  0  0
   48.1600   58.4700   35.8700 C   0  0  1  0  0  0  0  0  0  0  0  0
   47.3800   57.2000   34.0200 C   0  0  0  0  0  0  0  0  0  0  0  0
   46.8800   57.0200   32.9200 O   0  0  0  0  0  0  0  0  0  0  0  0
   48.4000   56.3000   34.7000 C   0  0  0  0  0  0  0  0  0  0  0  0
   49.7200   58.4400   27.6500 H   0  0  0  0  0  0  0  0  0  0  0  0
   50.5200   58.9900   26.1600 H   0  0  0  0  0  0  0  0  0  0  0  0
   46.6100   59.0700   34.4500 H   0  0  0  0  0  0  0  0  0  0  0  0
   51.8000   63.2900   34.1500 H   0  0  0  0  0  0  0  0  0  0  0  0
   49.9700   57.2200   35.9400 H   0  0  0  0  0  0  0  0  0  0  0  0
   48.6000   56.5700   36.8600 H   0  0  0  0  0  0  0  0  0  0  0  0
   52.1100   63.2100   31.6800 H   0  0  0  0  0  0  0  0  0  0  0  0
   51.7600   61.9600   29.5100 H   0  0  0  0  0  0  0  0  0  0  0  0
   48.4100   56.9700   30.8100 H   0  0  0  0  0  0  0  0  0  0  0  0
   47.9600   55.0200   29.3900 H   0  0  0  0  0  0  0  0  0  0  0  0
   47.9800   56.4500   28.3400 H   0  0  0  0  0  0  0  0  0  0  0  0
   49.3800   55.3700   28.3800 H   0  0  0  0  0  0  0  0  0  0  0  0
   50.6700   56.3900   31.7400 H   0  0  0  0  0  0  0  0  0  0  0  0
   49.8800   54.9000   31.2100 H   0  0  0  0  0  0  0  0  0  0  0  0
   51.1400   55.6400   30.2000 H   0  0  0  0  0  0  0  0  0  0  0  0
   49.5100   58.3500   32.0900 H   0  0  0  0  0  0  0  0  0  0  0  0
   49.9000   59.7200   36.3500 H   0  0  0  0  0  0  0  0  0  0  0  0
   48.5600   60.5800   35.5600 H   0  0  0  0  0  0  0  0  0  0  0  0
   47.6300   58.6600   36.8200 H   0  0  0  0  0  0  0  0  0  0  0  0
   47.9100   55.3700   34.9900 H   0  0  0  0  0  0  0  0  0  0  0  0
   49.2200   56.1000   34.0100 H   0  0  0  0  0  0  0  0  0  0  0  0
  1  9  1  0
  2 19  2  0
  3 22  1  0
  4  8  1  0
  4  5  2  0
  5 18  1  0
  6 17  1  0
  8  6  2  0
  9 12  1  0
 10  4  1  0
 11  9  2  0
 12 10  2  0
 12  2  1  0
 13  2  1  0
 13 14  1  0
 14 16  1  0
 15 14  1  0
 18 17  2  0
 18 20  1  0
 19  5  1  0
 20 21  1  0
 21 22  1  0
 22  7  1  0
 23  3  1  0
 23 25  1  0
 24 23  2  0
 25  7  1  0
  1 26  1  0
  1 27  1  0
  3 28  1  0
  6 29  1  0
  7 30  1  0
  7 31  1  0
  8 32  1  0
 10 33  1  0
 14 34  1  0
 15 35  1  0
 15 36  1  0
 15 37  1  0
 16 38  1  0
 16 39  1  0
 16 40  1  0
 19 41  1  0
 21 42  1  0
 21 43  1  0
 22 44  1  1
 25 45  1  0
 25 46  1  0
M  END
